@<TRIPOS>MOLECULE
2C0
26   26    1
SMALL
USER_CHARGES


@<TRIPOS>ATOM
      1 CL        171.7670  171.1760  221.6730 Cl        1 2C0         0.0000 
      2 C8        171.3670  172.0400  223.1350 C.ar      1 2C0         0.0000 
      3 C7        172.3640  172.3660  224.0160 C.ar      1 2C0         0.0000 
      4 C6        172.0180  173.0580  225.1800 C.ar      1 2C0         0.0000 
      5 C9        170.0550  172.3620  223.3530 C.ar      1 2C0         0.0000 
      6 C10       169.7310  173.0510  224.5230 C.ar      1 2C0         0.0000 
      7 C5        170.7010  173.4110  225.4530 C.ar      1 2C0         0.0000 
      8 C2        170.3170  174.1630  226.7150 C.3       1 2C0         0.0000 
      9 C1        171.3180  175.3370  226.8620 C.3       1 2C0         0.0000 
     10 N         171.1500  176.0780  228.0900 N.3       1 2C0         0.0000 
     11 C3        170.3570  173.3090  227.9740 C.3       1 2C0         0.0000 
     12 C4        169.2170  172.2660  228.0450 C.2       1 2C0         0.0000 
     13 O2        169.3410  171.3560  228.9050 O.3       1 2C0         0.0000 
     14 O         168.2680  172.3850  227.2620 O.2       1 2C0         0.0000 
     15 HC7       173.3860  172.0880  223.8020 H         1 2C0         0.0000 
     16 H99       169.3030  172.0830  222.6300 H         1 2C0         0.0000 
     17 HCA1      168.7040  173.3190  224.7250 H         1 2C0         0.0000 
     18 H66       172.7820  173.3310  225.8930 H         1 2C0         0.0000 
     19 HCC2      169.3120  174.5680  226.5940 H         1 2C0         0.0000 
     20 H111      171.2100  176.0130  226.0140 H         1 2C0         0.0000 
     21 H112      172.3370  174.9530  226.8070 H         1 2C0         0.0000 
     22 HN11      171.8270  176.8260  228.1280 H         1 2C0         0.0000 
     23 HN12      170.2180  176.4660  228.1250 H         1 2C0         0.0000 
     24 H311      170.3120  173.9550  228.8510 H         1 2C0         0.0000 
     25 H312      171.3180  172.7990  228.0350 H         1 2C0         0.0000 
     26 HO2       168.5830  170.7690  228.8620 H         1 2C0         0.0000 
@<TRIPOS>BOND
     1    1    2 1    
     2    2    3 ar   
     3    2    5 ar   
     4    3    4 ar   
     5    3   15 1    
     6    4    7 ar   
     7    4   18 1    
     8    5    6 ar   
     9    5   16 1    
    10    6    7 ar   
    11    6   17 1    
    12    7    8 1    
    13    8    9 1    
    14    8   11 1    
    15    8   19 1    
    16    9   10 1    
    17    9   20 1    
    18    9   21 1    
    19   10   22 1    
    20   10   23 1    
    21   11   12 1    
    22   11   24 1    
    23   11   25 1    
    24   12   13 1    
    25   12   14 2    
    26   13   26 1    
@<TRIPOS>SUBSTRUCTURE
     1 2C0         1 GROUP             0 C     ****    0 ROOT    
