@<TRIPOS>MOLECULE
TOH
17   16    1
SMALL
USER_CHARGES


@<TRIPOS>ATOM
      1 N         101.3194   98.2275  150.4242 N.3       1 TOH        -0.5917 
      2 CA        100.7686   97.1191  151.2236 C.3       1 TOH         0.0864 
      3 C         101.4358   97.1255  152.6218 C.3       1 TOH         0.1459 
      4 CB        100.8714   95.7414  150.4962 C.3       1 TOH         0.1849 
      5 OG1       100.1982   95.7756  149.2514 O.3       1 TOH        -0.6355 
      6 CG2       100.2557   94.5703  151.2845 C.3       1 TOH        -0.1889 
      7 H         102.2748   98.4774  150.6357 H         1 TOH         0.2981 
      8 HA         99.7098   97.3318  151.3921 H         1 TOH         0.1273 
      9 HB        101.9193   95.5152  150.2921 H         1 TOH         0.0546 
     10 HG1       100.3681   96.6283  148.8418 H         1 TOH         0.4209 
     11 HG21      100.2829   93.6439  150.7090 H         1 TOH         0.0675 
     12 HG22      100.7999   94.3835  152.2101 H         1 TOH         0.0675 
     13 HG23       99.2151   94.7666  151.5458 H         1 TOH         0.0675 
     14 HCX3      100.9036   96.4729  153.3143 H         1 TOH         0.0450 
     15 HCX2      101.3639   98.1214  153.0620 H         1 TOH         0.0450 
     16 O         102.8068   96.7748  152.5751 O.3       1 TOH        -0.6392 
     17 HO        103.1626   96.8061  153.4666 H         1 TOH         0.4221 
@<TRIPOS>BOND
     1    1    2 1    
     2    1    7 1    
     3    2    3 1    
     4    2    4 1    
     5    2    8 1    
     6    3   14 1    
     7    3   15 1    
     8    3   16 1    
     9    4    5 1    
    10    4    6 1    
    11    4    9 1    
    12    5   10 1    
    13    6   11 1    
    14    6   12 1    
    15    6   13 1    
    16   16   17 1    
@<TRIPOS>SUBSTRUCTURE
     1 TOH         1 GROUP             0 F     ****    0 ROOT    
