@<TRIPOS>MOLECULE
Structure3
113   119    1
SMALL
USER_CHARGES


@<TRIPOS>ATOM
      1 O01       175.1260  165.9160  159.6780 O.3       1 TA1         0.0000 
      2 C01       174.7980  167.1200  160.3850 C.3       1 TA1         0.0000 
      3 C02       173.5010  167.6750  159.7280 C.3       1 TA1         0.0000 
      4 O02       172.9850  166.5330  158.8630 O.3       1 TA1         0.0000 
      5 C03       172.9590  166.6970  157.6260 C.2       1 TA1         0.0000 
      6 O03       173.2530  167.8070  157.1290 O.2       1 TA1         0.0000 
      7 C04       172.5930  165.5940  156.7340 C.ar      1 TA1         0.0000 
      8 C05       172.7210  165.7720  155.3610 C.ar      1 TA1         0.0000 
      9 C06       172.3810  164.7440  154.5120 C.ar      1 TA1         0.0000 
     10 C07       171.9210  163.5540  155.0330 C.ar      1 TA1         0.0000 
     11 C08       171.7840  163.3780  156.3980 C.ar      1 TA1         0.0000 
     12 C09       172.1220  164.3940  157.2610 C.ar      1 TA1         0.0000 
     13 C10       172.5720  168.5040  160.6520 C.3       1 TA1         0.0000 
     14 C11       171.1910  168.0290  161.0460 C.3       1 TA1         0.0000 
     15 O04       171.1440  167.3640  162.4040 O.3       1 TA1         0.0000 
     16 C12       170.9630  167.9370  163.5080 C.2       1 TA1         0.0000 
     17 O05       171.4400  169.0700  163.7460 O.2       1 TA1         0.0000 
     18 C13       170.1600  167.2470  164.5840 C.3       1 TA1         0.0000 
     19 C14       170.3350  167.2340  160.0640 C.3       1 TA1         0.0000 
     20 O06       169.2950  168.2040  160.0350 O.3       1 TA1         0.0000 
     21 C15       170.0140  169.0000  160.9710 C.3       1 TA1         0.0000 
     22 C16       170.3160  170.3660  160.3720 C.3       1 TA1         0.0000 
     23 C17       171.6090  170.8570  160.9950 C.3       1 TA1         0.0000 
     24 O07       171.8950  172.2100  160.6670 O.3       1 TA1         0.0000 
     25 C18       172.7960  169.9760  160.5980 C.3       1 TA1         0.0000 
     26 C19       172.9250  170.4370  159.1470 C.3       1 TA1         0.0000 
     27 C20       173.9270  170.4670  161.4880 C.2       1 TA1         0.0000 
     28 O08       173.6180  170.8950  162.5960 O.2       1 TA1         0.0000 
     29 C21       175.4280  170.4780  161.1960 C.3       1 TA1         0.0000 
     30 O09       175.8030  171.4740  160.1370 O.3       1 TA1         0.0000 
     31 C22       175.4420  172.6720  160.2620 C.2       1 TA1         0.0000 
     32 O10       174.7150  173.2160  159.4030 O.2       1 TA1         0.0000 
     33 C23       175.8750  173.4570  161.4720 C.3       1 TA1         0.0000 
     34 C24       175.9520  169.0510  161.3240 C.2       1 TA1         0.0000 
     35 C25       175.9000  168.6010  162.6010 C.2       1 TA1         0.0000 
     36 C26       175.2910  167.2520  162.9610 C.3       1 TA1         0.0000 
     37 O11       174.4450  167.2560  164.2190 O.3       1 TA1         0.0000 
     38 C27       174.4280  166.2780  165.0100 C.2       1 TA1         0.0000 
     39 O12       175.3170  166.1950  165.8790 O.2       1 TA1         0.0000 
     40 C28       173.3260  165.2330  164.9520 C.3       1 TA1         0.0000 
     41 O13       172.8800  164.9830  166.2860 O.3       1 TA1         0.0000 
     42 C29       173.6800  163.8740  164.3080 C.3       1 TA1         0.0000 
     43 N01       173.2870  163.8060  162.8940 N.am      1 TA1         0.0000 
     44 C30       171.9990  163.7240  162.5240 C.2       1 TA1         0.0000 
     45 O14       171.5740  164.4860  161.6830 O.2       1 TA1         0.0000 
     46 C31       171.1140  162.7100  163.1350 C.ar      1 TA1         0.0000 
     47 C32       171.4200  161.3510  163.0300 C.ar      1 TA1         0.0000 
     48 C33       170.5910  160.4110  163.6060 C.ar      1 TA1         0.0000 
     49 C34       169.4560  160.8180  164.2810 C.ar      1 TA1         0.0000 
     50 C35       169.1420  162.1590  164.3890 C.ar      1 TA1         0.0000 
     51 C36       169.9660  163.1070  163.8220 C.ar      1 TA1         0.0000 
     52 C37       175.1300  163.4890  164.3710 C.ar      1 TA1         0.0000 
     53 C38       175.6430  162.8750  165.4980 C.ar      1 TA1         0.0000 
     54 C39       176.9680  162.4850  165.5140 C.ar      1 TA1         0.0000 
     55 C40       177.7670  162.7310  164.4140 C.ar      1 TA1         0.0000 
     56 C41       177.2470  163.3460  163.2930 C.ar      1 TA1         0.0000 
     57 C42       175.9240  163.7110  163.2650 C.ar      1 TA1         0.0000 
     58 C43       174.5060  166.6700  161.7940 C.3       1 TA1         0.0000 
     59 C44       176.5040  169.4130  163.7340 C.3       1 TA1         0.0000 
     60 C45       176.0180  168.0160  160.2260 C.3       1 TA1         0.0000 
     61 C46       177.3490  167.2400  160.0610 C.3       1 TA1         0.0000 
     62 C47       176.0360  168.4880  158.7870 C.3       1 TA1         0.0000 
     63 HO01      175.9246  165.5338  160.0493 H         1 TA1         0.0000 
     64 HC02      173.8670  168.4041  159.0051 H         1 TA1         0.0000 
     65 HC05      173.0845  166.7107  154.9697 H         1 TA1         0.0000 
     66 HC06      172.4753  164.8723  153.4438 H         1 TA1         0.0000 
     67 HC07      171.6608  162.7401  154.3725 H         1 TA1         0.0000 
     68 HC08      171.4113  162.4420  156.7871 H         1 TA1         0.0000 
     69 HC09      172.0277  164.2739  158.3301 H         1 TA1         0.0000 
     70 HC10      173.0782  168.3059  161.5968 H         1 TA1         0.0000 
     71 H131      170.1070  167.8866  165.4651 H         1 TA1         0.0000 
     72 H132      169.1526  167.0509  164.2169 H         1 TA1         0.0000 
     73 H133      170.6397  166.3046  164.8481 H         1 TA1         0.0000 
     74 H141      169.9619  166.3463  160.5748 H         1 TA1         0.0000 
     75 H142      170.8334  167.2364  159.0946 H         1 TA1         0.0000 
     76 HC15      169.4909  169.0800  161.9239 H         1 TA1         0.0000 
     77 H161      169.5095  171.0565  160.6186 H         1 TA1         0.0000 
     78 H162      170.4468  170.2686  159.2943 H         1 TA1         0.0000 
     79 HC17      171.4988  170.7953  162.0777 H         1 TA1         0.0000 
     80 HO07      172.7193  172.4732  161.0828 H         1 TA1         0.0000 
     81 H191      173.0884  171.5144  159.1207 H         1 TA1         0.0000 
     82 H192      173.7685  169.9305  158.6779 H         1 TA1         0.0000 
     83 H193      172.0102  170.1955  158.6058 H         1 TA1         0.0000 
     84 HC21      175.8282  170.9456  162.0956 H         1 TA1         0.0000 
     85 H231      175.4725  174.4682  161.4128 H         1 TA1         0.0000 
     86 H232      175.5028  172.9706  162.3736 H         1 TA1         0.0000 
     87 H233      176.9636  173.5012  161.5066 H         1 TA1         0.0000 
     88 HC26      176.1234  166.5733  163.1467 H         1 TA1         0.0000 
     89 HC28      172.4912  165.6588  164.3953 H         1 TA1         0.0000 
     90 HO13      172.1820  164.3240  166.2723 H         1 TA1         0.0000 
     91 HC29      173.1168  163.1065  164.8389 H         1 TA1         0.0000 
     92 HN01      174.0138  163.8222  162.1928 H         1 TA1         0.0000 
     93 HC32      172.3056  161.0364  162.4979 H         1 TA1         0.0000 
     94 HC33      170.8298  159.3606  163.5287 H         1 TA1         0.0000 
     95 HC34      168.8033  160.0847  164.7312 H         1 TA1         0.0000 
     96 HC35      168.2510  162.4641  164.9176 H         1 TA1         0.0000 
     97 HC36      169.7243  164.1560  163.9088 H         1 TA1         0.0000 
     98 HC38      175.0092  162.7041  166.3556 H         1 TA1         0.0000 
     99 HC39      177.3748  161.9903  166.3836 H         1 TA1         0.0000 
    100 HC40      178.8074  162.4416  164.4267 H         1 TA1         0.0000 
    101 HC41      177.8807  163.5392  162.4401 H         1 TA1         0.0000 
    102 HC42      175.5041  164.1701  162.3822 H         1 TA1         0.0000 
    103 H431      174.5630  165.5823  161.8369 H         1 TA1         0.0000 
    104 H432      173.4404  166.7897  161.9898 H         1 TA1         0.0000 
    105 H441      176.3605  168.8850  164.6767 H         1 TA1         0.0000 
    106 H442      177.5701  169.5514  163.5543 H         1 TA1         0.0000 
    107 H443      176.0153  170.3860  163.7851 H         1 TA1         0.0000 
    108 H461      178.1715  167.9471  159.9533 H         1 TA1         0.0000 
    109 H462      177.5185  166.6174  160.9395 H         1 TA1         0.0000 
    110 H463      177.2946  166.6089  159.1740 H         1 TA1         0.0000 
    111 H471      176.8978  169.1360  158.6274 H         1 TA1         0.0000 
    112 H472      176.1017  167.6266  158.1223 H         1 TA1         0.0000 
    113 H473      175.1215  169.0415  158.5742 H         1 TA1         0.0000 
@<TRIPOS>BOND
     1    1    2 1    
     2    1   63 1    
     3    2    3 1    
     4    2   58 1    
     5    2   60 1    
     6    3    4 1    
     7    3   13 1    
     8    3   64 1    
     9    4    5 1    
    10    5    6 2    
    11    5    7 1    
    12    7    8 ar   
    13    7   12 ar   
    14    8    9 ar   
    15    8   65 1    
    16    9   10 ar   
    17    9   66 1    
    18   10   11 ar   
    19   10   67 1    
    20   11   12 ar   
    21   11   68 1    
    22   12   69 1    
    23   13   14 1    
    24   13   25 1    
    25   13   70 1    
    26   14   15 1    
    27   14   19 1    
    28   14   21 1    
    29   15   16 1    
    30   16   17 2    
    31   16   18 1    
    32   18   71 1    
    33   18   72 1    
    34   18   73 1    
    35   19   20 1    
    36   19   74 1    
    37   19   75 1    
    38   20   21 1    
    39   21   22 1    
    40   21   76 1    
    41   22   23 1    
    42   22   77 1    
    43   22   78 1    
    44   23   24 1    
    45   23   25 1    
    46   23   79 1    
    47   24   80 1    
    48   25   26 1    
    49   25   27 1    
    50   26   81 1    
    51   26   82 1    
    52   26   83 1    
    53   27   28 2    
    54   27   29 1    
    55   29   30 1    
    56   29   34 1    
    57   29   84 1    
    58   30   31 1    
    59   31   32 2    
    60   31   33 1    
    61   33   85 1    
    62   33   86 1    
    63   33   87 1    
    64   34   35 2    
    65   34   60 1    
    66   35   36 1    
    67   35   59 1    
    68   36   37 1    
    69   36   58 1    
    70   36   88 1    
    71   37   38 1    
    72   38   39 2    
    73   38   40 1    
    74   40   41 1    
    75   40   42 1    
    76   40   89 1    
    77   41   90 1    
    78   42   43 1    
    79   42   52 1    
    80   42   91 1    
    81   43   44 am   BACKBONE|DICT|INTERRES
    82   43   92 1    
    83   44   45 2    
    84   44   46 1    
    85   46   47 ar   
    86   46   51 ar   
    87   47   48 ar   
    88   47   93 1    
    89   48   49 ar   
    90   48   94 1    
    91   49   50 ar   
    92   49   95 1    
    93   50   51 ar   
    94   50   96 1    
    95   51   97 1    
    96   52   53 ar   
    97   52   57 ar   
    98   53   54 ar   
    99   53   98 1    
   100   54   55 ar   
   101   54   99 1    
   102   55   56 ar   
   103   55  100 1    
   104   56   57 ar   
   105   56  101 1    
   106   57  102 1    
   107   58  103 1    
   108   58  104 1    
   109   59  105 1    
   110   59  106 1    
   111   59  107 1    
   112   60   61 1    
   113   60   62 1    
   114   61  108 1    
   115   61  109 1    
   116   61  110 1    
   117   62  111 1    
   118   62  112 1    
   119   62  113 1    
@<TRIPOS>SUBSTRUCTURE
     1 TA1         1 GROUP             0 A     ****    0 ROOT    
