@<TRIPOS>MOLECULE
YP4
48   50    1
SMALL
USER_CHARGES


@<TRIPOS>ATOM
      1 C1        200.4090  226.0280  263.2230 C.3       1 YP4         0.0000 
      2 C3        202.7170  227.5080  265.6790 C.3       1 YP4         0.0000 
      3 C4        202.0460  228.8650  265.4070 C.3       1 YP4         0.0000 
      4 C5        202.9630  230.0440  265.7060 C.3       1 YP4         0.0000 
      5 C6        202.5140  231.3460  265.1200 C.ar      1 YP4         0.0000 
      6 N         202.2450  226.4080  264.8080 N.3       1 YP4         0.0000 
      7 CA        201.7010  226.8100  263.4840 C.3       1 YP4         0.0000 
      8 CB        202.7110  226.5040  262.4090 C.ar      1 YP4         0.0000 
      9 CG        203.0110  227.4590  261.3990 C.ar      1 YP4         0.0000 
     10 CGD1      203.9540  227.1430  260.4130 C.ar      1 YP4         0.0000 
     11 CCD2      202.3890  228.7300  261.3500 C.ar      1 YP4         0.0000 
     12 CCE1      204.2630  228.0830  259.4010 C.ar      1 YP4         0.0000 
     13 CE2       202.6990  229.6250  260.3690 C.ar      1 YP4         0.0000 
     14 CZ        203.6500  229.2990  259.3790 C.ar      1 YP4         0.0000 
     15 C7        203.1170  231.8590  263.9730 C.ar      1 YP4         0.0000 
     16 C8        202.6820  233.0680  263.4480 C.ar      1 YP4         0.0000 
     17 C9        201.6530  233.7820  264.0390 C.ar      1 YP4         0.0000 
     18 CA10      201.0550  233.2690  265.1790 C.ar      1 YP4         0.0000 
     19 CB11      201.4790  232.0630  265.7160 C.ar      1 YP4         0.0000 
     20 CD12      203.3530  233.6050  262.1980 C.3       1 YP4         0.0000 
     21 CE14      203.3410  225.2950  262.4030 C.ar      1 YP4         0.0000 
     22 CF15      204.2910  224.9820  261.4050 C.ar      1 YP4         0.0000 
     23 CG16      204.5940  225.8830  260.4310 C.ar      1 YP4         0.0000 
     24 FA1       202.6340  234.4860  261.4850 F         1 YP4         0.0000 
     25 FA2       203.6730  232.6520  261.3020 F         1 YP4         0.0000 
     26 FA3       204.5010  234.2380  262.4550 F         1 YP4         0.0000 
     27 HAE1      204.9890  227.8380  258.6400 H         1 YP4         0.0000 
     28 HZ        203.8920  230.0120  258.6050 H         1 YP4         0.0000 
     29 HD2       201.6580  229.0020  262.0960 H         1 YP4         0.0000 
     30 HBE2      202.2160  230.5900  260.3460 H         1 YP4         0.0000 
     31 HC14      203.1160  224.5650  263.1660 H         1 YP4         0.0000 
     32 HF15      204.7840  224.0210  261.4110 H         1 YP4         0.0000 
     33 HA16      205.3220  225.6360  259.6730 H         1 YP4         0.0000 
     34 HB11      200.9990  231.6810  266.6050 H         1 YP4         0.0000 
     35 HBC9      201.3150  234.7220  263.6280 H         1 YP4         0.0000 
     36 HD10      200.2510  233.8090  265.6570 H         1 YP4         0.0000 
     37 HAC7      203.9200  231.3160  263.4960 H         1 YP4         0.0000 
     38 H111      200.0000  226.3140  262.2540 H         1 YP4         0.0000 
     39 H112      200.6240  224.9590  263.2250 H         1 YP4         0.0000 
     40 H113      199.6830  226.2530  264.0040 H         1 YP4         0.0000 
     41 H311      202.5650  227.2330  266.7230 H         1 YP4         0.0000 
     42 H312      203.7970  227.6120  265.5760 H         1 YP4         0.0000 
     43 H411      201.1410  228.9490  266.0080 H         1 YP4         0.0000 
     44 H412      201.7270  228.9090  264.3660 H         1 YP4         0.0000 
     45 H511      203.9690  229.8170  265.3530 H         1 YP4         0.0000 
     46 H512      203.0720  230.1520  266.7850 H         1 YP4         0.0000 
     47 HN        203.0110  225.7780  264.6160 H         1 YP4         0.0000 
     48 HA        201.4860  227.8780  263.4880 H         1 YP4         0.0000 
@<TRIPOS>BOND
     1    1    7 1    
     2    1   38 1    
     3    1   39 1    
     4    1   40 1    
     5    2    3 1    
     6    2    6 1    
     7    2   41 1    
     8    2   42 1    
     9    3    4 1    
    10    3   43 1    
    11    3   44 1    
    12    4    5 1    
    13    4   45 1    
    14    4   46 1    
    15    5   15 ar   
    16    5   19 ar   
    17    6    7 1    
    18    6   47 1    
    19    7    8 1    
    20    7   48 1    
    21    8    9 ar   
    22    8   21 ar   
    23    9   10 ar   
    24    9   11 ar   
    25   10   12 ar   
    26   10   23 ar   
    27   11   13 ar   
    28   11   29 1    
    29   12   14 ar   
    30   12   27 1    
    31   13   14 ar   
    32   13   30 1    
    33   14   28 1    
    34   15   16 ar   
    35   15   37 1    
    36   16   17 ar   
    37   16   20 1    
    38   17   18 ar   
    39   17   35 1    
    40   18   19 ar   
    41   18   36 1    
    42   19   34 1    
    43   20   24 1    
    44   20   25 1    
    45   20   26 1    
    46   21   22 ar   
    47   21   31 1    
    48   22   23 ar   
    49   22   32 1    
    50   23   33 1    
@<TRIPOS>SUBSTRUCTURE
     1 YP4         1 GROUP             0 A     ****    0 ROOT    
