@<TRIPOS>MOLECULE
GXR
57   60    1
SMALL
USER_CHARGES


@<TRIPOS>ATOM
      1 C5         90.1540  119.0610  115.7110 C.3       1 GXR         0.0000 
      2 C6         92.1900  119.5890  114.3960 C.3       1 GXR         0.0000 
      3 C9         91.2110  122.4180  117.6060 C.3       1 GXR         0.0000 
      4 C4         92.6900  122.4650  117.0640 C.3       1 GXR         0.0000 
      5 C3         92.9040  121.7180  115.7650 C.3       1 GXR         0.0000 
      6 O2         90.4740  123.5260  117.1750 O.3       1 GXR         0.0000 
      7 C1         90.6600  120.5510  115.9380 C.3       1 GXR         0.0000 
      8 C7         90.4390  121.1080  117.3290 C.3       1 GXR         0.0000 
      9 CA10       93.3450  123.8490  117.0020 C.3       1 GXR         0.0000 
     10 CB11       94.4070  121.5660  115.5260 C.3       1 GXR         0.0000 
     11 CC12       90.1150  121.5390  114.8930 C.3       1 GXR         0.0000 
     12 CD13       95.1970  122.8820  115.5640 C.3       1 GXR         0.0000 
     13 CE14       94.8200  123.6870  116.7580 C.2       1 GXR         0.0000 
     14 CF15       88.6220  118.7440  115.6440 C.2       1 GXR         0.0000 
     15 CG16       90.2580  118.5500  113.1220 C.3       1 GXR         0.0000 
     16 CH17       92.8150  124.7400  115.8440 C.3       1 GXR         0.0000 
     17 CI18       93.1280  124.6400  118.2670 C.2       1 GXR         0.0000 
     18 CJ19       95.6700  124.6090  117.2160 C.2       1 GXR         0.0000 
     19 C2         92.1290  120.4100  115.6780 C.3       1 GXR         0.0000 
     20 CK20       87.5310  119.7210  116.0500 C.3       1 GXR         0.0000 
     21 CL21       93.8970  125.6860  118.5460 C.2       1 GXR         0.0000 
     22 CM22       95.1780  125.8520  117.8350 C.2       1 GXR         0.0000 
     23 C8         91.0000  118.6120  114.4600 C.3       1 GXR         0.0000 
     24 O1         90.5730  118.2200  116.7390 O.3       1 GXR         0.0000 
     25 O3         88.2660  117.6350  115.2710 O.2       1 GXR         0.0000 
     26 O4         86.9890  119.4260  117.2910 O.3       1 GXR         0.0000 
     27 O5         95.7620  126.9240  117.7550 O.2       1 GXR         0.0000 
     28 CL1        93.7110  121.4720  118.2780 Cl        1 GXR         0.0000 
     29 H611       93.1220  119.0240  114.3720 H         1 GXR         0.0000 
     30 H612       92.0700  120.2490  113.5370 H         1 GXR         0.0000 
     31 HAC9       91.2820  122.5040  118.6900 H         1 GXR         0.0000 
     32 HBC3       92.5250  122.3590  114.9700 H         1 GXR         0.0000 
     33 HO2        89.5800  123.4700  117.5200 H         1 GXR         0.0000 
     34 H711       89.3740  121.2760  117.4860 H         1 GXR         0.0000 
     35 H712       90.7220  120.3580  118.0680 H         1 GXR         0.0000 
     36 HH11       94.5720  121.0740  114.5680 H         1 GXR         0.0000 
     37 HH12       94.8210  120.8750  116.2600 H         1 GXR         0.0000 
     38 HD21       90.4970  122.5380  115.1030 H         1 GXR         0.0000 
     39 HD22       90.4350  121.2300  113.8980 H         1 GXR         0.0000 
     40 HD23       89.0260  121.5500  114.9360 H         1 GXR         0.0000 
     41 HE31       94.9910  123.4550  114.6600 H         1 GXR         0.0000 
     42 HE32       96.2640  122.6640  115.5960 H         1 GXR         0.0000 
     43 HF61       90.9450  118.2290  112.3390 H         1 GXR         0.0000 
     44 HF62       89.4340  117.8400  113.1950 H         1 GXR         0.0000 
     45 HF63       89.8650  119.5370  112.8780 H         1 GXR         0.0000 
     46 HG71       93.3240  125.7030  115.8640 H         1 GXR         0.0000 
     47 HG72       93.0060  124.2480  114.8900 H         1 GXR         0.0000 
     48 HG73       91.7430  124.8940  115.9650 H         1 GXR         0.0000 
     49 HI18       92.3410  124.3510  118.9480 H         1 GXR         0.0000 
     50 HJ19       96.7350  124.4490  117.1350 H         1 GXR         0.0000 
     51 HC2        92.5190  119.7700  116.4690 H         1 GXR         0.0000 
     52 HJ01       86.7410  119.7150  115.2990 H         1 GXR         0.0000 
     53 HJ02       87.9370  120.7320  116.0630 H         1 GXR         0.0000 
     54 HK21       93.5820  126.4050  119.2880 H         1 GXR         0.0000 
     55 HLC8       91.3970  117.6180  114.6660 H         1 GXR         0.0000 
     56 HMO1       90.2530  117.3300  116.5750 H         1 GXR         0.0000 
     57 HNO4       86.3070  120.0670  117.5040 H         1 GXR         0.0000 
@<TRIPOS>BOND
     1    1    7 1    
     2    1   14 1    
     3    1   23 1    
     4    1   24 1    
     5    2   19 1    
     6    2   23 1    
     7    2   29 1    
     8    2   30 1    
     9    3    4 1    
    10    3    6 1    
    11    3    8 1    
    12    3   31 1    
    13    4    5 1    
    14    4    9 1    
    15    4   28 1    
    16    5   10 1    
    17    5   19 1    
    18    5   32 1    
    19    6   33 1    
    20    7    8 1    
    21    7   11 1    
    22    7   19 1    
    23    8   34 1    
    24    8   35 1    
    25    9   13 1    
    26    9   16 1    
    27    9   17 1    
    28   10   12 1    
    29   10   36 1    
    30   10   37 1    
    31   11   38 1    
    32   11   39 1    
    33   11   40 1    
    34   12   13 1    
    35   12   41 1    
    36   12   42 1    
    37   13   18 2    
    38   14   20 1    
    39   14   25 2    
    40   15   23 1    
    41   15   43 1    
    42   15   44 1    
    43   15   45 1    
    44   16   46 1    
    45   16   47 1    
    46   16   48 1    
    47   17   21 2    
    48   17   49 1    
    49   18   22 1    
    50   18   50 1    
    51   19   51 1    
    52   20   26 1    
    53   20   52 1    
    54   20   53 1    
    55   21   22 1    
    56   21   54 1    
    57   22   27 2    
    58   23   55 1    
    59   24   56 1    
    60   26   57 1    
@<TRIPOS>SUBSTRUCTURE
     1 GXR         1 GROUP             0 R     ****    0 ROOT    
