@<TRIPOS>MOLECULE
EZI
38   40    1
SMALL
USER_CHARGES


@<TRIPOS>ATOM
      1 CD10      158.8800  146.1310  144.4460 C.ar      1 EZI         0.0000 
      2 CI13      156.3550  143.1020  142.8350 C.3       1 EZI         0.0000 
      3 CC15      158.8380  146.5790  145.7590 C.ar      1 EZI         0.0000 
      4 CM17      159.7090  143.5830  140.3260 C.ar      1 EZI         0.0000 
      5 CN20      158.6770  144.9470  138.1670 C.ar      1 EZI         0.0000 
      6 CN21      159.8360  143.0510  139.0610 C.ar      1 EZI         0.0000 
      7 CK22      159.3220  143.7330  137.9780 C.ar      1 EZI         0.0000 
      8 CH06      156.6400  144.3880  142.0680 C.3       1 EZI         0.0000 
      9 CF07      157.8710  145.0840  142.6450 C.ar      1 EZI         0.0000 
     10 CA08      160.0010  146.3130  143.7000 C.ar      1 EZI         0.0000 
     11 CG09      160.0350  145.8750  142.4240 C.ar      1 EZI         0.0000 
     12 CJ11      159.0660  144.7930  140.5260 C.ar      1 EZI         0.0000 
     13 CI12      155.4410  145.3240  142.1580 C.3       1 EZI         0.0000 
     14 CE14      161.1080  146.9520  144.2460 C.ar      1 EZI         0.0000 
     15 CM16      158.5510  145.4820  139.4390 C.ar      1 EZI         0.0000 
     16 CA18      159.9330  147.2100  146.3030 C.ar      1 EZI         0.0000 
     17 CB19      161.0670  147.3960  145.5500 C.ar      1 EZI         0.0000 
     18 CL23      159.4760  143.1270  136.5890 C.1       1 EZI         0.0000 
     19 NB03      158.9840  145.2770  141.8940 N.pl3     1 EZI         0.0000 
     20 NA04      157.8360  145.5260  143.9210 N.2       1 EZI         0.0000 
     21 NC05      159.5950  142.6690  135.5620 N.1       1 EZI         0.0000 
     22 OAA1      161.0100  146.0370  141.7810 O.2       1 EZI         0.0000 
     23 OBB2      159.8840  147.6630  147.6240 O.3       1 EZI         0.0000 
     24 HC15      157.9470  146.4320  146.3510 H         1 EZI         0.0000 
     25 HB14      161.9960  147.0990  143.6490 H         1 EZI         0.0000 
     26 HA19      161.9260  147.8900  145.9800 H         1 EZI         0.0000 
     27 HM16      158.0550  146.4300  139.5860 H         1 EZI         0.0000 
     28 HM17      160.1140  143.0550  141.1770 H         1 EZI         0.0000 
     29 HN21      160.3360  142.1040  138.9210 H         1 EZI         0.0000 
     30 HN20      158.2700  145.4800  137.3200 H         1 EZI         0.0000 
     31 H124      155.4750  142.6150  142.4140 H         1 EZI         0.0000 
     32 H125      157.2120  142.4340  142.7560 H         1 EZI         0.0000 
     33 H126      156.1730  143.3370  143.8840 H         1 EZI         0.0000 
     34 HC06      156.8250  144.1450  141.0220 H         1 EZI         0.0000 
     35 H121      155.6530  146.2410  141.6070 H         1 EZI         0.0000 
     36 H122      154.5660  144.8370  141.7280 H         1 EZI         0.0000 
     37 H123      155.2450  145.5650  143.2030 H         1 EZI         0.0000 
     38 HO02      160.7190  148.0770  147.8520 H         1 EZI         0.0000 
@<TRIPOS>BOND
     1    1    3 ar   
     2    1   10 ar   
     3    1   20 ar   
     4    2    8 1    
     5    2   31 1    
     6    2   32 1    
     7    2   33 1    
     8    3   16 ar   
     9    3   24 1    
    10    4    6 ar   
    11    4   12 ar   
    12    4   28 1    
    13    5    7 ar   
    14    5   15 ar   
    15    5   30 1    
    16    6    7 ar   
    17    6   29 1    
    18    7   18 1    
    19    8    9 1    
    20    8   13 1    
    21    8   34 1    
    22    9   19 ar   
    23    9   20 ar   
    24   10   11 ar   
    25   10   14 ar   
    26   11   19 ar   
    27   11   22 2    
    28   12   15 ar   
    29   12   19 1    
    30   13   35 1    
    31   13   36 1    
    32   13   37 1    
    33   14   17 ar   
    34   14   25 1    
    35   15   27 1    
    36   16   17 ar   
    37   16   23 1    
    38   17   26 1    
    39   18   21 3    
    40   23   38 1    
@<TRIPOS>SUBSTRUCTURE
     1 EZI         1 GROUP             0 C     ****    0 ROOT    
